** setup test: surface / contact / section - co cai san loi
** s_top_A CO Y thieu element 102 (lo thung giua surface)
*SURFACE, NAME=s_top_A, TYPE=ELEMENT
101, S2
103, S2
*SURFACE, NAME=s_top_B, TYPE=ELEMENT
201, S2
202, S2
203, S2
** s_bot_C chi phu 2/3 chieu dai s_top_B -> mat slave cua elem 203 khong duoc phu
*SURFACE, NAME=s_bot_C, TYPE=ELEMENT
301, S1
302, S1
** s_stale tro element khong ton tai (mo phong surface chet sau remesh)
*SURFACE, NAME=s_stale, TYPE=ELEMENT
99901, S1
** cap surface tai mat tiep giap A|D (2 lop node co chu dich, dung contact)
*SURFACE, NAME=s_side_A, TYPE=ELEMENT
103, S4
*SURFACE, NAME=s_side_D, TYPE=ELEMENT
401, S6
** cap surface G|H lech bien dang (xuyen 0.15 / ho 0.25)
*SURFACE, NAME=s_top_G, TYPE=ELEMENT
601, S2
*SURFACE, NAME=s_bot_H, TYPE=ELEMENT
701, S1
** s_top_B2 CHONG mat voi s_top_B (dung chung 202,S2) - contact chong vung
*SURFACE, NAME=s_top_B2, TYPE=ELEMENT
202, S2
** cap tile: dien tich lech nhung phu nhau day du -> hop le
*SURFACE, NAME=s_top_K, TYPE=ELEMENT
811, S2
812, S2
813, S2
814, S2
*SURFACE, NAME=s_tile_K, TYPE=ELEMENT
MK_TILES, SPOS
** cap tile THIEU 1 tam giua pattern (elem 833 khong co tile doi dien)
*SURFACE, NAME=s_top_L, TYPE=ELEMENT
831, S2
832, S2
833, S2
834, S2
835, S2
836, S2
*SURFACE, NAME=s_tile_L, TYPE=ELEMENT
ML_TILES, SPOS
*SURFACE INTERACTION, NAME=FRICT_test
1.0,
*FRICTION
0.1, 0.0
*CONTACT PAIR, INTERACTION=FRICT_test, ADJUST=0.1, SMALL SLIDING
s_top_B, s_bot_C
*CONTACT PAIR, INTERACTION=FRICT_test, SMALL SLIDING
s_side_A, s_side_D
*CONTACT PAIR, INTERACTION=FRICT_test, ADJUST=0.1
s_top_G, s_bot_H
*CONTACT PAIR, INTERACTION=FRICT_test
s_top_B2, s_bot_C
*CONTACT PAIR, INTERACTION=FRICT_test, SMALL SLIDING
s_top_K, s_tile_K
*CONTACT PAIR, INTERACTION=FRICT_test, SMALL SLIDING
s_top_L, s_tile_L
** contact tro surface + interaction khong ton tai
*CONTACT PAIR, INTERACTION=FRICT_missing
s_top_A, s_ghost
*TIE, NAME=tie_test, POSITION TOLERANCE = 0.3
s_stale, s_top_A
*SOLID SECTION, ELSET=BLOCK_A, MATERIAL=STEEL
*SOLID SECTION, ELSET=BLOCK_C, MATERIAL=STEEL_missing
*SOLID SECTION, ELSET=BLOCK_D, MATERIAL=STEEL
*SOLID SECTION, ELSET=BLOCK_E, MATERIAL=STEEL
*SOLID SECTION, ELSET=BLOCK_F, MATERIAL=STEEL
*SOLID SECTION, ELSET=BLOCK_G, MATERIAL=STEEL
*SOLID SECTION, ELSET=BLOCK_H, MATERIAL=STEEL
*SOLID SECTION, ELSET=BLOCK_I, MATERIAL=STEEL
*SOLID SECTION, ELSET=BLOCK_J, MATERIAL=STEEL
*SOLID SECTION, ELSET=BLOCK_K, MATERIAL=STEEL
*SOLID SECTION, ELSET=BLOCK_L, MATERIAL=STEEL
*MEMBRANE SECTION, ELSET=MK_TILES, MATERIAL=STEEL
0.001,
*MEMBRANE SECTION, ELSET=ML_TILES, MATERIAL=STEEL
0.001,
** BLOCK_B co y KHONG co section
*MATERIAL, NAME=STEEL
*ELASTIC, TYPE=ISO
210000., 0.3
*MATERIAL, NAME=MAT_unused
*ELASTIC
100., 0.3
**clearance, slave=s_top_B, master=s_bot_C, VALUE=<cl_test>
** *TIE, NAME=tie_off
